Version 4
SHEET 1 1432 748
WIRE 848 -48 800 -48
WIRE 976 -48 848 -48
WIRE 1088 -48 976 -48
WIRE 1168 -48 1088 -48
WIRE 848 16 848 -48
WIRE 1088 16 1088 -48
WIRE 848 128 848 96
WIRE 1088 128 1088 96
WIRE -96 144 -176 144
WIRE 960 176 912 176
WIRE 1024 176 960 176
WIRE -96 192 -96 144
WIRE 80 192 -96 192
WIRE 240 192 160 192
WIRE 384 192 320 192
WIRE 576 224 480 224
WIRE 736 224 656 224
WIRE 848 256 848 224
WIRE 960 256 960 176
WIRE 960 256 848 256
WIRE -96 272 -176 272
WIRE 1088 288 1088 224
WIRE 1088 288 784 288
WIRE 240 320 -48 320
WIRE 384 320 384 192
WIRE 384 320 320 320
WIRE 480 320 480 224
WIRE 480 320 384 320
WIRE 512 320 480 320
WIRE 848 320 848 256
WIRE 736 336 736 224
WIRE 736 336 576 336
WIRE 784 336 784 288
WIRE 816 336 784 336
WIRE 512 352 480 352
WIRE 944 352 880 352
WIRE 1088 352 1088 288
WIRE 1088 352 944 352
WIRE 1216 352 1088 352
WIRE 1248 352 1216 352
WIRE 736 368 736 336
WIRE 816 368 736 368
WIRE -96 400 -176 400
WIRE 848 416 848 384
WIRE 960 416 848 416
WIRE 240 448 -48 448
WIRE 384 448 384 320
WIRE 384 448 320 448
WIRE 848 448 848 416
WIRE 1088 448 1088 352
WIRE 1248 464 1248 352
WIRE 960 496 960 416
WIRE 960 496 912 496
WIRE 1024 496 960 496
WIRE 480 512 480 352
WIRE 848 576 848 544
WIRE 1088 576 1088 544
WIRE 848 704 848 656
WIRE 848 704 800 704
WIRE 976 704 848 704
WIRE 1088 704 1088 656
WIRE 1088 704 976 704
WIRE 1136 704 1088 704
WIRE 1248 704 1248 544
FLAG -96 480 0
FLAG -96 352 0
FLAG -256 144 0
FLAG -256 272 0
FLAG -256 400 0
FLAG 64 -48 V+
FLAG 160 -48 V-
FLAG 64 32 0
FLAG 160 32 0
FLAG 544 304 V+
FLAG 544 368 V-
FLAG 480 512 0
FLAG 1248 704 0
FLAG 944 352 Out_AO
FLAG 1216 352 Out_RL
FLAG 976 704 V-
FLAG 976 -48 V+
SYMBOL pot -112 256 R0
SYMATTR InstName P2
SYMBOL pot -112 384 R0
SYMATTR InstName P3
SYMBOL voltage -160 144 R90
WINDOW 0 -32 56 VBottom 2
WINDOW 3 32 56 VTop 2
WINDOW 123 0 0 Left 0
WINDOW 39 0 0 Left 0
SYMATTR InstName V1
SYMATTR Value AC 1
SYMBOL voltage -160 272 R90
WINDOW 0 -32 56 VBottom 2
WINDOW 3 32 56 VTop 2
WINDOW 123 0 0 Left 0
WINDOW 39 0 0 Left 0
SYMATTR InstName V2
SYMATTR Value 0
SYMBOL voltage -160 400 R90
WINDOW 0 -32 56 VBottom 2
WINDOW 3 32 56 VTop 2
WINDOW 123 0 0 Left 0
WINDOW 39 0 0 Left 0
SYMATTR InstName V3
SYMATTR Value 0
SYMBOL OpAmps\\OP07 544 272 R0
SYMATTR InstName U4
SYMBOL voltage 64 -64 R0
WINDOW 123 0 0 Left 0
WINDOW 39 0 0 Left 0
SYMATTR InstName V4
SYMATTR Value 5
SYMBOL voltage 160 -64 R0
WINDOW 123 0 0 Left 0
WINDOW 39 0 0 Left 0
SYMATTR InstName V5
SYMATTR Value -5
SYMBOL res 672 208 R90
WINDOW 0 0 56 VBottom 2
WINDOW 3 32 56 VTop 2
SYMATTR InstName Rf
SYMATTR Value 30k
SYMBOL pnp 912 224 R180
SYMATTR InstName Q1
SYMATTR Value 2N3906
SYMBOL pnp 1024 224 M180
SYMATTR InstName Q2
SYMATTR Value 2N3906
SYMBOL res 832 0 R0
SYMATTR InstName R4
SYMATTR Value 100
SYMBOL res 1072 0 R0
SYMATTR InstName R5
SYMATTR Value 50
SYMBOL npn 912 448 M0
SYMATTR InstName Q3
SYMATTR Value 2N3904
SYMBOL npn 1024 448 R0
SYMATTR InstName Q4
SYMATTR Value 2N3904
SYMBOL res 832 560 R0
SYMATTR InstName R6
SYMATTR Value 100
SYMBOL res 1072 560 R0
SYMATTR InstName R7
SYMATTR Value 50
SYMBOL res 1232 448 R0
SYMATTR InstName RL
SYMATTR Value 32
SYMBOL res 336 176 R90
WINDOW 0 0 56 VBottom 2
WINDOW 3 32 56 VTop 2
SYMATTR InstName R1
SYMATTR Value 10k
SYMBOL res 336 304 R90
WINDOW 0 0 56 VBottom 2
WINDOW 3 32 56 VTop 2
SYMATTR InstName R2
SYMATTR Value 10k
SYMBOL res 336 432 R90
WINDOW 0 0 56 VBottom 2
WINDOW 3 32 56 VTop 2
SYMATTR InstName R3
SYMATTR Value 10k
SYMBOL OpAmps\\OP07 848 288 R0
SYMATTR InstName U1
SYMBOL res 176 176 R90
WINDOW 0 0 56 VBottom 2
WINDOW 3 32 56 VTop 2
SYMATTR InstName P1
SYMATTR Value {P}
TEXT 336 -56 Left 2 !.include pot.sub
TEXT 336 -24 Left 2 ;.tran 20m
TEXT -288 64 Left 2 ;SINE(0 1 1k)
TEXT 336 8 Left 2 !.ac dec 100 10 100meg
TEXT 336 40 Left 2 !.step param P list 0.01 80K
TEXT 336 72 Left 2 !.param P=0.01
